
  ChemDraw05142416053D

  0  0  0     0  0              0 V3000
M  V30 BEGIN CTAB
M  V30 COUNTS 57 68 2 0 0
M  V30 BEGIN ATOM
M  V30 1 C 4.712312 4.308822 -0.237968 0
M  V30 2 C 5.637747 4.346898 1.365414 0
M  V30 3 C 4.898456 3.476461 2.856684 0
M  V30 4 C 3.308824 2.557372 2.709672 0
M  V30 5 C -2.440503 2.685345 0.083554 0
M  V30 6 C -3.539390 3.671066 -0.979373 0
M  V30 7 C -2.852982 4.622941 -2.442088 0
M  V30 8 C -1.095186 4.486505 -2.852453 0
M  V30 9 C 2.075618 3.191956 -2.123739 0
M  V30 10 C 2.361180 1.168691 -3.011099 0
M  V30 11 C 3.101528 3.403483 -0.397671 0
M  V30 12 C 2.414062 2.512951 1.095715 0
M  V30 13 C 0.084083 3.485979 -1.739816 0
M  V30 14 C 3.641982 0.134320 -1.883655 0
M  V30 15 H 2.731354 4.525639 -3.477518 0
M  V30 16 H 2.953457 1.556844 -4.502369 0
M  V30 17 C 0.639344 0.219988 -3.243779 0
M  V30 18 C 0.691167 1.565306 0.861976 0
M  V30 19 C -0.588576 2.598620 -0.265466 0
M  V30 20 C 5.493908 0.048651 -2.232676 0
M  V30 21 C 2.969323 -0.751982 -0.408248 0
M  V30 22 C -0.255420 0.176625 -4.857736 0
M  V30 23 C -0.048122 -0.670544 -1.750393 0
M  V30 24 C 0.977788 -0.457959 -0.025383 0
M  V30 25 C 6.592795 -0.938126 -1.169748 0
M  V30 26 C 4.147533 -1.753567 0.703330 0
M  V30 27 C -1.845052 -0.743521 -5.005806 0
M  V30 28 C -1.659965 -1.575883 -1.910096 0
M  V30 29 C 5.906386 -1.890002 0.292967 0
M  V30 30 C -2.584342 -1.612901 -3.513477 0
M  V30 31 O -4.311466 -3.178207 3.705968 0 CHG=1
M  V30 32 C -2.835002 1.790583 2.354305 0
M  V30 33 C -2.745102 3.305122 2.316230 0
M  V30 34 C -1.492858 3.978839 1.786354 0
M  V30 35 C -1.402958 5.493378 1.748279 0
M  V30 36 C -2.566361 6.335260 2.240082 0
M  V30 37 C -3.819664 5.661542 2.771016 0
M  V30 38 C -3.908506 4.147004 2.808034 0
M  V30 39 C -4.087247 1.117925 2.884184 0
M  V30 40 C -5.250650 1.958748 3.375985 0
M  V30 41 C -6.503953 1.286089 3.905862 0
M  V30 42 C -6.592795 -0.228450 3.943937 0
M  V30 43 C -5.429391 -1.070331 3.452136 0
M  V30 44 C -4.177147 -0.396616 2.922259 0
M  V30 45 C 0.320993 -1.791642 1.329454 0
M  V30 46 C -0.272343 -1.122156 2.555258 0
M  V30 47 C -0.316763 0.392384 2.645156 0
M  V30 48 C -0.910099 1.061870 3.870960 0
M  V30 49 C -1.460071 0.217873 5.005806 0
M  V30 50 C -1.415650 -1.296666 4.915906 0
M  V30 51 C -0.822315 -1.967209 3.690104 0
M  V30 52 C 0.365414 -3.306181 1.238497 0
M  V30 53 C -0.184558 -4.151235 2.373344 0
M  V30 54 C -0.140138 -5.665774 2.282387 0
M  V30 55 C 0.453198 -6.335260 1.056583 0
M  V30 56 C 1.003172 -5.490205 -0.078265 0
M  V30 57 C 0.958750 -3.976724 0.012692 0
M  V30 END ATOM
M  V30 BEGIN BOND
M  V30 1 2 43 44
M  V30 2 1 42 43
M  V30 3 2 41 42
M  V30 4 1 40 41
M  V30 5 2 39 40
M  V30 6 1 39 44
M  V30 7 2 37 38
M  V30 8 1 36 37
M  V30 9 2 35 36
M  V30 10 1 34 35
M  V30 11 2 33 34
M  V30 12 1 33 38
M  V30 13 1 32 33
M  V30 14 1 32 39
M  V30 15 1 18 32
M  V30 16 1 31 32
M  V30 17 2 56 57
M  V30 18 1 55 56
M  V30 19 2 54 55
M  V30 20 1 53 54
M  V30 21 2 52 53
M  V30 22 1 52 57
M  V30 23 2 50 51
M  V30 24 1 49 50
M  V30 25 2 48 49
M  V30 26 1 47 48
M  V30 27 2 46 47
M  V30 28 1 46 51
M  V30 29 1 45 46
M  V30 30 1 45 52
M  V30 31 1 24 45
M  V30 32 1 31 45
M  V30 33 2 1 2
M  V30 34 1 1 11
M  V30 35 1 2 3
M  V30 36 2 3 4
M  V30 37 1 4 12
M  V30 38 1 5 6
M  V30 39 2 5 19
M  V30 40 2 6 7
M  V30 41 1 7 8
M  V30 42 2 8 13
M  V30 43 1 9 10
M  V30 44 1 9 11
M  V30 45 1 9 13
M  V30 46 1 9 15
M  V30 47 1 10 14
M  V30 48 1 10 16
M  V30 49 1 10 17
M  V30 50 2 11 12
M  V30 51 1 12 18
M  V30 52 1 13 19
M  V30 53 1 14 20
M  V30 54 2 14 21
M  V30 55 2 17 22
M  V30 56 1 17 23
M  V30 57 1 18 19
M  V30 58 1 18 24
M  V30 59 2 20 25
M  V30 60 1 21 24
M  V30 61 1 21 26
M  V30 62 1 22 27
M  V30 63 1 23 24
M  V30 64 2 23 28
M  V30 65 1 25 29
M  V30 66 2 26 29
M  V30 67 2 27 30
M  V30 68 1 28 30
M  V30 END BOND
M  V30 BEGIN SGROUP
M  V30 1 SUP 1 ATOMS=(13 32 33 34 35 36 37 38 39 40 41 42 43 44) XBONDS=(2 15 -
M  V30 16) LABEL=CPh2 CSTATE=(4 15 3.526169 -0.225278 0) CSTATE=(4 16 -
M  V30 -1.476464 -4.968791 0)
M  V30 2 SUP 2 ATOMS=(13 45 46 47 48 49 50 51 52 53 54 55 56 57) XBONDS=(2 31 -
M  V30 32) LABEL=CPh2 CSTATE=(4 31 0.656795 1.333683 0) CSTATE=(4 32 -
M  V30 -4.632459 -1.386565 0)
M  V30 END SGROUP
M  V30 END CTAB
M  END