
  ChemDraw05142416033D

  0  0  0     0  0              0 V3000
M  V30 BEGIN CTAB
M  V30 COUNTS 57 67 2 0 0
M  V30 BEGIN ATOM
M  V30 1 C 3.185610 3.765622 -0.302682 0
M  V30 2 C 4.111044 3.803697 1.300700 0
M  V30 3 C 3.371754 2.933260 2.791970 0
M  V30 4 C 1.782122 2.014171 2.644959 0
M  V30 5 C -3.967205 2.142145 0.018840 0
M  V30 6 C -5.066093 3.127866 -1.044086 0
M  V30 7 C -4.379684 4.079741 -2.506802 0
M  V30 8 C -2.621888 3.943305 -2.917166 0
M  V30 9 C 0.548916 2.648755 -2.188453 0
M  V30 10 C 0.834478 0.625490 -3.075812 0
M  V30 11 C 1.574826 2.860283 -0.462385 0
M  V30 12 C 0.887360 1.969751 1.031001 0
M  V30 13 C -1.442619 2.942779 -1.804529 0
M  V30 14 C 2.115279 -0.408881 -1.948368 0
M  V30 15 O 1.731356 5.006232 -4.614678 0
M  V30 16 H 1.426755 1.013644 -4.567083 0
M  V30 17 C -0.887359 -0.323212 -3.308493 0
M  V30 18 C -0.835535 1.022105 0.797262 0
M  V30 19 C -2.115278 2.055419 -0.330180 0
M  V30 20 C 3.967205 -0.494549 -2.297390 0
M  V30 21 C 1.442621 -1.295183 -0.472962 0
M  V30 22 C -1.782122 -0.366576 -4.922450 0
M  V30 23 C -1.574824 -1.213744 -1.815106 0
M  V30 24 C -0.548914 -1.001159 -0.090097 0
M  V30 25 H -1.426755 0.632895 2.289592 0
M  V30 26 C 5.066093 -1.481327 -1.234462 0
M  V30 27 C 2.620831 -2.296768 0.638617 0
M  V30 28 C -3.371754 -1.286722 -5.070520 0
M  V30 29 C -3.186667 -2.119083 -1.974809 0
M  V30 30 C 4.379684 -2.433202 0.228254 0
M  V30 31 C -4.111044 -2.156101 -3.578191 0
M  V30 32 C 1.204652 3.982438 -3.542232 0
M  V30 33 C 1.497617 3.652454 -4.146143 0
M  V30 34 C 1.768374 4.068107 -4.704576 0
M  V30 35 C 2.060282 3.738124 -5.308489 0
M  V30 36 C 2.082493 2.992488 -5.352910 0
M  V30 37 C 1.811736 2.576835 -4.794476 0
M  V30 38 C 1.518771 2.906819 -4.190563 0
M  V30 39 C 1.183499 4.728074 -3.497811 0
M  V30 40 C 0.891590 5.058057 -2.893898 0
M  V30 41 C 0.869380 5.803693 -2.849478 0
M  V30 42 C 1.140136 6.219345 -3.408968 0
M  V30 43 C 1.432044 5.889362 -4.011822 0
M  V30 44 C 1.454255 5.143726 -4.057301 0
M  V30 45 C -1.205709 -2.334843 1.264740 0 CHG=1
M  V30 46 C -1.866327 -2.434932 2.627463 0
M  V30 47 C -2.234448 -1.173460 3.386825 0
M  V30 48 C -2.895066 -1.273551 4.749547 0
M  V30 49 C -3.187563 -2.635112 5.352910 0
M  V30 50 C -2.819442 -3.896583 4.593550 0
M  V30 51 C -2.158824 -3.796493 3.230827 0
M  V30 52 C -0.837588 -3.596313 0.505379 0
M  V30 53 C -1.130085 -4.957874 1.108743 0
M  V30 54 C -0.761964 -6.219345 0.349383 0
M  V30 55 C -0.101346 -6.119255 -1.013341 0
M  V30 56 C 0.191152 -4.757695 -1.616705 0
M  V30 57 C -0.176969 -3.496224 -0.857345 0
M  V30 END ATOM
M  V30 BEGIN BOND
M  V30 1 2 43 44
M  V30 2 1 42 43
M  V30 3 2 41 42
M  V30 4 1 40 41
M  V30 5 2 39 40
M  V30 6 1 39 44
M  V30 7 2 37 38
M  V30 8 1 36 37
M  V30 9 2 35 36
M  V30 10 1 34 35
M  V30 11 2 33 34
M  V30 12 1 33 38
M  V30 13 1 32 33
M  V30 14 1 32 39
M  V30 15 1 9 32
M  V30 16 1 15 32
M  V30 17 2 56 57
M  V30 18 1 55 56
M  V30 19 2 54 55
M  V30 20 1 53 54
M  V30 21 2 52 53
M  V30 22 1 52 57
M  V30 23 2 50 51
M  V30 24 1 49 50
M  V30 25 2 48 49
M  V30 26 1 47 48
M  V30 27 2 46 47
M  V30 28 1 46 51
M  V30 29 1 45 46
M  V30 30 1 45 52
M  V30 31 1 24 45
M  V30 32 2 1 2
M  V30 33 1 1 11
M  V30 34 1 2 3
M  V30 35 2 3 4
M  V30 36 1 4 12
M  V30 37 1 5 6
M  V30 38 2 5 19
M  V30 39 2 6 7
M  V30 40 1 7 8
M  V30 41 2 8 13
M  V30 42 1 9 10
M  V30 43 1 9 11
M  V30 44 1 9 13
M  V30 45 1 10 14
M  V30 46 1 10 16
M  V30 47 1 10 17
M  V30 48 2 11 12
M  V30 49 1 12 18
M  V30 50 1 13 19
M  V30 51 1 14 20
M  V30 52 2 14 21
M  V30 53 2 17 22
M  V30 54 1 17 23
M  V30 55 1 18 19
M  V30 56 1 18 24
M  V30 57 1 18 25
M  V30 58 2 20 26
M  V30 59 1 21 24
M  V30 60 1 21 27
M  V30 61 1 22 28
M  V30 62 1 23 24
M  V30 63 2 23 29
M  V30 64 1 26 30
M  V30 65 2 27 30
M  V30 66 2 28 31
M  V30 67 1 29 31
M  V30 END BOND
M  V30 BEGIN SGROUP
M  V30 1 SUP 1 ATOMS=(13 32 33 34 35 36 37 38 39 40 41 42 43 44) XBONDS=(2 15 -
M  V30 16) LABEL=CPh2 CSTATE=(4 15 -0.655736 -1.333683 0) CSTATE=(4 16 -
M  V30 0.526704 1.023794 0)
M  V30 2 SUP 2 ATOMS=(13 45 46 47 48 49 50 51 52 53 54 55 56 57) XBONDS=(1 -
M  V30 31) LABEL=CPh2 CSTATE=(4 31 0.656795 1.333683 0)
M  V30 END SGROUP
M  V30 END CTAB
M  END
